49

V         0.0779587741    0.0554603665   -0.0332879023
S        -0.3399702292    1.9324770969   -1.4900892216
S         1.0491711354    1.6927027817    1.4462023666
S        -1.8250452302    0.0843156215    1.4532329475
S        -1.3499195390   -1.2481028770   -1.4786014912
S         1.8841812854   -0.5244512852   -1.5213458566
S         1.0278707673   -1.6173867598    1.4237678034
C         0.2315654102    3.4030606546   -0.6184961974
C         0.8151755067    3.3012322063    0.6652547031
C         0.0896776280    4.6781541288   -1.1949734038
C         1.2296355404    4.4776721827    1.3144830717
C        -3.1212038870   -0.8884183865    0.6626655945
C        -2.9218028957   -1.4516314180   -0.6184873796
C        -4.3575852189   -1.0860072160    1.3025315658
C        -3.9679663685   -2.1890003709   -1.2012075120
C         2.4348289486   -2.3294702176    0.5501091986
C         2.7967138936   -1.8674135844   -0.7360381319
C         3.1845493570   -3.3684127681    1.1300367773
C         1.0837025048    5.7398565621    0.7296263822
C         0.5073390670    5.8409324080   -0.5388783391
S         1.9908490518    4.4459340834    2.9815195214
S         1.6662288796    7.1758102359    1.6953421082
S        -0.6575286772    4.9127776660   -2.8519106768
S         0.2586328122    7.4237348100   -1.4140237019
C         3.8955403624   -2.4608911005   -1.3820797854
C         4.6344184231   -3.4928456408   -0.7935947242
C         4.2737761726   -3.9525197383    0.4753440622
S         2.7884920910   -4.0366304084    2.7898518775
S         4.4438276697   -1.9281131249   -3.0487051897
S         6.0339452213   -4.1654781811   -1.7533326980
S         5.1489373893   -5.2933910519    1.3534549896
C        -5.1932733948   -2.3800126715   -0.5532574609
C        -5.3901721491   -1.8221532792    0.7120230602
S        -4.7089833744   -0.3934813199    2.9623506630
S        -3.8049942194   -2.9568366527   -2.8572861136
S        -6.4565659776   -3.3587096549   -1.4358189481
S        -6.9366705237   -1.9970787456    1.6674812297
C        -6.3944452102   -1.0311759116    3.1100432188
S        -7.3878867307   -0.7655434074    4.4516083642
C        -5.4561066826   -3.6906155302   -2.9192875418
S        -6.0331756290   -4.6018639939   -4.2212279214
C         2.2366206166    6.2299918007    3.1407025589
S         2.9269256370    6.9669559965    4.4958417414
C        -0.5077877985    6.7135079325   -2.9037004319
S        -1.0224077700    7.6647760952   -4.2032400455
C         5.8250245019   -3.0841626977   -3.2013946817
S         6.8399229897   -3.1650419446   -4.5513133463
C         4.1075102899   -5.2726956803    2.8445699155
S         4.3643888285   -6.3188107111    4.1475424121
