60

  C      4.96969861      2.86944105      0.00000000
  C      3.76923841      3.57603699      0.00000000
  C      2.53681227      2.89535727      0.00000000
  C      2.57923172      1.48927197      0.00000000
  C      3.77589675      0.74907202      0.00000000
  C      4.98146389      1.47660211      0.00000000
  C      3.76923841     -3.57603699      0.00000000
  C      4.96969861     -2.86944105      0.00000000
  C      2.53681227     -2.89535727      0.00000000
  C      4.98146389     -1.47660211      0.00000000
  C      2.57923172     -1.48927197      0.00000000
  C      3.77589675     -0.74907202      0.00000000
  C      0.00000000     -5.73784656      0.00000000
  C      1.21207936     -5.05143158      0.00000000
  C     -1.21207936     -5.05143158      0.00000000
  C      1.23908502     -3.64398497      0.00000000
  C     -1.23908502     -3.64398497      0.00000000
  C      0.00000000     -2.97739002      0.00000000
  C     -3.76923841     -3.57603699      0.00000000
  C     -2.53681227     -2.89535727      0.00000000
  C     -4.96969861     -2.86944105      0.00000000
  C     -2.57923172     -1.48927197      0.00000000
  C     -4.98146389     -1.47660211      0.00000000
  C     -3.77589675     -0.74907202      0.00000000
  C     -3.77589675      0.74907202      0.00000000
  C     -2.57923172      1.48927197      0.00000000
  C     -4.98146389      1.47660211      0.00000000
  C     -2.53681227      2.89535727      0.00000000
  C     -4.96969861      2.86944105      0.00000000
  C     -3.76923841      3.57603699      0.00000000
  C      0.00000000      2.97739002      0.00000000
  C      1.23908502      3.64398497      0.00000000
  C     -1.23908502      3.64398497      0.00000000
  C      1.21207936      5.05143158      0.00000000
  C     -1.21207936      5.05143158      0.00000000
  C      0.00000000      5.73784656      0.00000000
  H     -5.91553326      3.41562910      0.00000000
  H     -3.80787403      4.66429963      0.00000000
  H      0.00000000      1.89135768      0.00000000
  H      2.13496388      5.62940829      0.00000000
  H     -2.13496388      5.62940829      0.00000000
  H      0.00000000      6.83007222      0.00000000
  H      5.91553326      3.41562910      0.00000000
  H      3.80787403      4.66429963      0.00000000
  H      1.63845757      0.94703610      0.00000000
  H      5.94345659      0.96667697      0.00000000
  H     -1.63845757      0.94703610      0.00000000
  H     -5.94345659      0.96667697      0.00000000
  H      5.94345659     -0.96667697      0.00000000
  H      5.91553326     -3.41562910      0.00000000
  H      3.80787403     -4.66429963      0.00000000
  H      1.63845757     -0.94703610      0.00000000
  H      0.00000000     -6.83007222      0.00000000
  H      2.13496388     -5.62940829      0.00000000
  H     -2.13496388     -5.62940829      0.00000000
  H      0.00000000     -1.89135768      0.00000000
  H     -3.80787403     -4.66429963      0.00000000
  H     -5.91553326     -3.41562910      0.00000000
  H     -1.63845757     -0.94703610      0.00000000
  H     -5.94345659     -0.96667697      0.00000000

