    8

    He       0.0000000000000000       0.0000000000000000      -6.2307629999999996 
    He       0.0000000000000000       0.0000000000000000      -4.4491440000000004 
    He       0.0000000000000000       0.0000000000000000      -2.6686904999999999 
    He       0.0000000000000000       0.0000000000000000      -0.8895600000000000 
    He       0.0000000000000000       0.0000000000000000       0.8895600000000000 
    He       0.0000000000000000       0.0000000000000000       2.6686904999999999 
    He       0.0000000000000000       0.0000000000000000       4.4491440000000004 
    He       0.0000000000000000       0.0000000000000000       6.2307629999999996 
    8

    He       0.0000000000000000       0.0000000000000000      -6.5274660000000004 
    He       0.0000000000000000       0.0000000000000000      -4.6610080000000007 
    He       0.0000000000000000       0.0000000000000000      -2.7957710000000002 
    He       0.0000000000000000       0.0000000000000000      -0.9319200000000000 
    He       0.0000000000000000       0.0000000000000000       0.9319200000000000 
    He       0.0000000000000000       0.0000000000000000       2.7957710000000002 
    He       0.0000000000000000       0.0000000000000000       4.6610080000000007 
    He       0.0000000000000000       0.0000000000000000       6.5274660000000004 
    8

    He       0.0000000000000000       0.0000000000000000      -6.8241689999999995 
    He       0.0000000000000000       0.0000000000000000      -4.8728720000000001 
    He       0.0000000000000000       0.0000000000000000      -2.9228514999999997 
    He       0.0000000000000000       0.0000000000000000      -0.9742799999999999 
    He       0.0000000000000000       0.0000000000000000       0.9742799999999999 
    He       0.0000000000000000       0.0000000000000000       2.9228514999999997 
    He       0.0000000000000000       0.0000000000000000       4.8728720000000001 
    He       0.0000000000000000       0.0000000000000000       6.8241689999999995 
    8

    He       0.0000000000000000       0.0000000000000000      -7.1208719999999994 
    He       0.0000000000000000       0.0000000000000000      -5.0847360000000004 
    He       0.0000000000000000       0.0000000000000000      -3.0499319999999996 
    He       0.0000000000000000       0.0000000000000000      -1.0166400000000000 
    He       0.0000000000000000       0.0000000000000000       1.0166400000000000 
    He       0.0000000000000000       0.0000000000000000       3.0499319999999996 
    He       0.0000000000000000       0.0000000000000000       5.0847360000000004 
    He       0.0000000000000000       0.0000000000000000       7.1208719999999994 
    8

    He       0.0000000000000000       0.0000000000000000      -7.4175749999999994 
    He       0.0000000000000000       0.0000000000000000      -5.2965999999999998 
    He       0.0000000000000000       0.0000000000000000      -3.1770125000000000 
    He       0.0000000000000000       0.0000000000000000      -1.0589999999999999 
    He       0.0000000000000000       0.0000000000000000       1.0589999999999999 
    He       0.0000000000000000       0.0000000000000000       3.1770125000000000 
    He       0.0000000000000000       0.0000000000000000       5.2965999999999998 
    He       0.0000000000000000       0.0000000000000000       7.4175749999999994 
    8

    He       0.0000000000000000       0.0000000000000000      -7.7142780000000002 
    He       0.0000000000000000       0.0000000000000000      -5.5084640000000000 
    He       0.0000000000000000       0.0000000000000000      -3.3040929999999999 
    He       0.0000000000000000       0.0000000000000000      -1.1013599999999999 
    He       0.0000000000000000       0.0000000000000000       1.1013599999999999 
    He       0.0000000000000000       0.0000000000000000       3.3040929999999999 
    He       0.0000000000000000       0.0000000000000000       5.5084640000000000 
    He       0.0000000000000000       0.0000000000000000       7.7142780000000002 
    8

    He       0.0000000000000000       0.0000000000000000      -8.0109809999999992 
    He       0.0000000000000000       0.0000000000000000      -5.7203280000000003 
    He       0.0000000000000000       0.0000000000000000      -3.4311735000000003 
    He       0.0000000000000000       0.0000000000000000      -1.1437200000000001 
    He       0.0000000000000000       0.0000000000000000       1.1437200000000001 
    He       0.0000000000000000       0.0000000000000000       3.4311735000000003 
    He       0.0000000000000000       0.0000000000000000       5.7203280000000003 
    He       0.0000000000000000       0.0000000000000000       8.0109809999999992 
    8

    He       0.0000000000000000       0.0000000000000000      -8.3076839999999983 
    He       0.0000000000000000       0.0000000000000000      -5.9321919999999997 
    He       0.0000000000000000       0.0000000000000000      -3.5582539999999998 
    He       0.0000000000000000       0.0000000000000000      -1.1860799999999998 
    He       0.0000000000000000       0.0000000000000000       1.1860799999999998 
    He       0.0000000000000000       0.0000000000000000       3.5582539999999998 
    He       0.0000000000000000       0.0000000000000000       5.9321919999999997 
    He       0.0000000000000000       0.0000000000000000       8.3076839999999983 
    8

    He       0.0000000000000000       0.0000000000000000      -8.6043869999999991 
    He       0.0000000000000000       0.0000000000000000      -6.1440560000000000 
    He       0.0000000000000000       0.0000000000000000      -3.6853344999999997 
    He       0.0000000000000000       0.0000000000000000      -1.2284400000000000 
    He       0.0000000000000000       0.0000000000000000       1.2284400000000000 
    He       0.0000000000000000       0.0000000000000000       3.6853344999999997 
    He       0.0000000000000000       0.0000000000000000       6.1440560000000000 
    He       0.0000000000000000       0.0000000000000000       8.6043869999999991 
    8

    He       0.0000000000000000       0.0000000000000000      -8.9010899999999999 
    He       0.0000000000000000       0.0000000000000000      -6.3559200000000002 
    He       0.0000000000000000       0.0000000000000000      -3.8124149999999997 
    He       0.0000000000000000       0.0000000000000000      -1.2707999999999999 
    He       0.0000000000000000       0.0000000000000000       1.2707999999999999 
    He       0.0000000000000000       0.0000000000000000       3.8124149999999997 
    He       0.0000000000000000       0.0000000000000000       6.3559200000000002 
    He       0.0000000000000000       0.0000000000000000       8.9010899999999999 
    8

    He       0.0000000000000000       0.0000000000000000      -9.1977929999999990 
    He       0.0000000000000000       0.0000000000000000      -6.5677840000000005 
    He       0.0000000000000000       0.0000000000000000      -3.9394955000000000 
    He       0.0000000000000000       0.0000000000000000      -1.3131599999999999 
    He       0.0000000000000000       0.0000000000000000       1.3131599999999999 
    He       0.0000000000000000       0.0000000000000000       3.9394955000000000 
    He       0.0000000000000000       0.0000000000000000       6.5677840000000005 
    He       0.0000000000000000       0.0000000000000000       9.1977929999999990 
    8

    He       0.0000000000000000       0.0000000000000000      -9.4944959999999998 
    He       0.0000000000000000       0.0000000000000000      -6.7796480000000008 
    He       0.0000000000000000       0.0000000000000000      -4.0665760000000004 
    He       0.0000000000000000       0.0000000000000000      -1.3555200000000001 
    He       0.0000000000000000       0.0000000000000000       1.3555200000000001 
    He       0.0000000000000000       0.0000000000000000       4.0665760000000004 
    He       0.0000000000000000       0.0000000000000000       6.7796480000000008 
    He       0.0000000000000000       0.0000000000000000       9.4944959999999998 
    8

    He       0.0000000000000000       0.0000000000000000      -9.7911989999999989 
    He       0.0000000000000000       0.0000000000000000      -6.9915120000000002 
    He       0.0000000000000000       0.0000000000000000      -4.1936564999999995 
    He       0.0000000000000000       0.0000000000000000      -1.3978799999999998 
    He       0.0000000000000000       0.0000000000000000       1.3978799999999998 
    He       0.0000000000000000       0.0000000000000000       4.1936564999999995 
    He       0.0000000000000000       0.0000000000000000       6.9915120000000002 
    He       0.0000000000000000       0.0000000000000000       9.7911989999999989 
    8

    He       0.0000000000000000       0.0000000000000000     -10.0879019999999997 
    He       0.0000000000000000       0.0000000000000000      -7.2033760000000013 
    He       0.0000000000000000       0.0000000000000000      -4.3207370000000003 
    He       0.0000000000000000       0.0000000000000000      -1.4402400000000000 
    He       0.0000000000000000       0.0000000000000000       1.4402400000000000 
    He       0.0000000000000000       0.0000000000000000       4.3207370000000003 
    He       0.0000000000000000       0.0000000000000000       7.2033760000000013 
    He       0.0000000000000000       0.0000000000000000      10.0879019999999997 
    8

    He       0.0000000000000000       0.0000000000000000     -10.3846049999999988 
    He       0.0000000000000000       0.0000000000000000      -7.4152400000000007 
    He       0.0000000000000000       0.0000000000000000      -4.4478175000000002 
    He       0.0000000000000000       0.0000000000000000      -1.4825999999999999 
    He       0.0000000000000000       0.0000000000000000       1.4825999999999999 
    He       0.0000000000000000       0.0000000000000000       4.4478175000000002 
    He       0.0000000000000000       0.0000000000000000       7.4152400000000007 
    He       0.0000000000000000       0.0000000000000000      10.3846049999999988 
    8

    He       0.0000000000000000       0.0000000000000000     -10.6813079999999996 
    He       0.0000000000000000       0.0000000000000000      -7.6271040000000001 
    He       0.0000000000000000       0.0000000000000000      -4.5748980000000001 
    He       0.0000000000000000       0.0000000000000000      -1.5249599999999999 
    He       0.0000000000000000       0.0000000000000000       1.5249599999999999 
    He       0.0000000000000000       0.0000000000000000       4.5748980000000001 
    He       0.0000000000000000       0.0000000000000000       7.6271040000000001 
    He       0.0000000000000000       0.0000000000000000      10.6813079999999996 
    8

    He       0.0000000000000000       0.0000000000000000     -10.9780110000000004 
    He       0.0000000000000000       0.0000000000000000      -7.8389680000000004 
    He       0.0000000000000000       0.0000000000000000      -4.7019785000000001 
    He       0.0000000000000000       0.0000000000000000      -1.5673200000000000 
    He       0.0000000000000000       0.0000000000000000       1.5673200000000000 
    He       0.0000000000000000       0.0000000000000000       4.7019785000000001 
    He       0.0000000000000000       0.0000000000000000       7.8389680000000004 
    He       0.0000000000000000       0.0000000000000000      10.9780110000000004 
    8

    He       0.0000000000000000       0.0000000000000000     -11.2747139999999995 
    He       0.0000000000000000       0.0000000000000000      -8.0508319999999998 
    He       0.0000000000000000       0.0000000000000000      -4.8290590000000000 
    He       0.0000000000000000       0.0000000000000000      -1.6096799999999998 
    He       0.0000000000000000       0.0000000000000000       1.6096799999999998 
    He       0.0000000000000000       0.0000000000000000       4.8290590000000000 
    He       0.0000000000000000       0.0000000000000000       8.0508319999999998 
    He       0.0000000000000000       0.0000000000000000      11.2747139999999995 
    8

    He       0.0000000000000000       0.0000000000000000     -11.5714170000000003 
    He       0.0000000000000000       0.0000000000000000      -8.2626960000000018 
    He       0.0000000000000000       0.0000000000000000      -4.9561394999999999 
    He       0.0000000000000000       0.0000000000000000      -1.6520400000000000 
    He       0.0000000000000000       0.0000000000000000       1.6520400000000000 
    He       0.0000000000000000       0.0000000000000000       4.9561394999999999 
    He       0.0000000000000000       0.0000000000000000       8.2626960000000018 
    He       0.0000000000000000       0.0000000000000000      11.5714170000000003 
    8

    He       0.0000000000000000       0.0000000000000000     -11.8681199999999993 
    He       0.0000000000000000       0.0000000000000000      -8.4745600000000003 
    He       0.0000000000000000       0.0000000000000000      -5.0832199999999998 
    He       0.0000000000000000       0.0000000000000000      -1.6943999999999999 
    He       0.0000000000000000       0.0000000000000000       1.6943999999999999 
    He       0.0000000000000000       0.0000000000000000       5.0832199999999998 
    He       0.0000000000000000       0.0000000000000000       8.4745600000000003 
    He       0.0000000000000000       0.0000000000000000      11.8681199999999993 
    8

    He       0.0000000000000000       0.0000000000000000     -12.1648229999999984 
    He       0.0000000000000000       0.0000000000000000      -8.6864239999999988 
    He       0.0000000000000000       0.0000000000000000      -5.2103004999999998 
    He       0.0000000000000000       0.0000000000000000      -1.7367599999999999 
    He       0.0000000000000000       0.0000000000000000       1.7367599999999999 
    He       0.0000000000000000       0.0000000000000000       5.2103004999999998 
    He       0.0000000000000000       0.0000000000000000       8.6864239999999988 
    He       0.0000000000000000       0.0000000000000000      12.1648229999999984 
    8

    He       0.0000000000000000       0.0000000000000000     -12.4615259999999992 
    He       0.0000000000000000       0.0000000000000000      -8.8982880000000009 
    He       0.0000000000000000       0.0000000000000000      -5.3373809999999997 
    He       0.0000000000000000       0.0000000000000000      -1.7791200000000000 
    He       0.0000000000000000       0.0000000000000000       1.7791200000000000 
    He       0.0000000000000000       0.0000000000000000       5.3373809999999997 
    He       0.0000000000000000       0.0000000000000000       8.8982880000000009 
    He       0.0000000000000000       0.0000000000000000      12.4615259999999992 
    8

    He       0.0000000000000000       0.0000000000000000     -12.7582290000000018 
    He       0.0000000000000000       0.0000000000000000      -9.1101520000000011 
    He       0.0000000000000000       0.0000000000000000      -5.4644615000000005 
    He       0.0000000000000000       0.0000000000000000      -1.8214800000000002 
    He       0.0000000000000000       0.0000000000000000       1.8214800000000002 
    He       0.0000000000000000       0.0000000000000000       5.4644615000000005 
    He       0.0000000000000000       0.0000000000000000       9.1101520000000011 
    He       0.0000000000000000       0.0000000000000000      12.7582290000000018 
    8

    He       0.0000000000000000       0.0000000000000000     -13.0549320000000009 
    He       0.0000000000000000       0.0000000000000000      -9.3220160000000014 
    He       0.0000000000000000       0.0000000000000000      -5.5915420000000005 
    He       0.0000000000000000       0.0000000000000000      -1.8638399999999999 
    He       0.0000000000000000       0.0000000000000000       1.8638399999999999 
    He       0.0000000000000000       0.0000000000000000       5.5915420000000005 
    He       0.0000000000000000       0.0000000000000000       9.3220160000000014 
    He       0.0000000000000000       0.0000000000000000      13.0549320000000009 
    8

    He       0.0000000000000000       0.0000000000000000     -13.3516349999999999 
    He       0.0000000000000000       0.0000000000000000      -9.5338799999999999 
    He       0.0000000000000000       0.0000000000000000      -5.7186224999999995 
    He       0.0000000000000000       0.0000000000000000      -1.9061999999999999 
    He       0.0000000000000000       0.0000000000000000       1.9061999999999999 
    He       0.0000000000000000       0.0000000000000000       5.7186224999999995 
    He       0.0000000000000000       0.0000000000000000       9.5338799999999999 
    He       0.0000000000000000       0.0000000000000000      13.3516349999999999 
    8

    He       0.0000000000000000       0.0000000000000000     -13.6483379999999990 
    He       0.0000000000000000       0.0000000000000000      -9.7457440000000002 
    He       0.0000000000000000       0.0000000000000000      -5.8457029999999994 
    He       0.0000000000000000       0.0000000000000000      -1.9485599999999998 
    He       0.0000000000000000       0.0000000000000000       1.9485599999999998 
    He       0.0000000000000000       0.0000000000000000       5.8457029999999994 
    He       0.0000000000000000       0.0000000000000000       9.7457440000000002 
    He       0.0000000000000000       0.0000000000000000      13.6483379999999990 
    8

    He       0.0000000000000000       0.0000000000000000     -13.9450409999999998 
    He       0.0000000000000000       0.0000000000000000      -9.9576080000000005 
    He       0.0000000000000000       0.0000000000000000      -5.9727835000000002 
    He       0.0000000000000000       0.0000000000000000      -1.9909200000000000 
    He       0.0000000000000000       0.0000000000000000       1.9909200000000000 
    He       0.0000000000000000       0.0000000000000000       5.9727835000000002 
    He       0.0000000000000000       0.0000000000000000       9.9576080000000005 
    He       0.0000000000000000       0.0000000000000000      13.9450409999999998 
    8

    He       0.0000000000000000       0.0000000000000000     -14.2417440000000006 
    He       0.0000000000000000       0.0000000000000000     -10.1694720000000025 
    He       0.0000000000000000       0.0000000000000000      -6.0998640000000011 
    He       0.0000000000000000       0.0000000000000000      -2.0332800000000000 
    He       0.0000000000000000       0.0000000000000000       2.0332800000000000 
    He       0.0000000000000000       0.0000000000000000       6.0998640000000011 
    He       0.0000000000000000       0.0000000000000000      10.1694720000000025 
    He       0.0000000000000000       0.0000000000000000      14.2417440000000006 
    8

    He       0.0000000000000000       0.0000000000000000     -14.5384469999999997 
    He       0.0000000000000000       0.0000000000000000     -10.3813360000000010 
    He       0.0000000000000000       0.0000000000000000      -6.2269445000000001 
    He       0.0000000000000000       0.0000000000000000      -2.0756399999999999 
    He       0.0000000000000000       0.0000000000000000       2.0756399999999999 
    He       0.0000000000000000       0.0000000000000000       6.2269445000000001 
    He       0.0000000000000000       0.0000000000000000      10.3813360000000010 
    He       0.0000000000000000       0.0000000000000000      14.5384469999999997 
    8

    He       0.0000000000000000       0.0000000000000000     -14.8351499999999987 
    He       0.0000000000000000       0.0000000000000000     -10.5931999999999995 
    He       0.0000000000000000       0.0000000000000000      -6.3540250000000000 
    He       0.0000000000000000       0.0000000000000000      -2.1179999999999999 
    He       0.0000000000000000       0.0000000000000000       2.1179999999999999 
    He       0.0000000000000000       0.0000000000000000       6.3540250000000000 
    He       0.0000000000000000       0.0000000000000000      10.5931999999999995 
    He       0.0000000000000000       0.0000000000000000      14.8351499999999987 
    8

    He       0.0000000000000000       0.0000000000000000     -15.1318529999999978 
    He       0.0000000000000000       0.0000000000000000     -10.8050639999999998 
    He       0.0000000000000000       0.0000000000000000      -6.4811054999999991 
    He       0.0000000000000000       0.0000000000000000      -2.1603599999999998 
    He       0.0000000000000000       0.0000000000000000       2.1603599999999998 
    He       0.0000000000000000       0.0000000000000000       6.4811054999999991 
    He       0.0000000000000000       0.0000000000000000      10.8050639999999998 
    He       0.0000000000000000       0.0000000000000000      15.1318529999999978 
    8

    He       0.0000000000000000       0.0000000000000000     -15.4285560000000004 
    He       0.0000000000000000       0.0000000000000000     -11.0169280000000001 
    He       0.0000000000000000       0.0000000000000000      -6.6081859999999999 
    He       0.0000000000000000       0.0000000000000000      -2.2027199999999998 
    He       0.0000000000000000       0.0000000000000000       2.2027199999999998 
    He       0.0000000000000000       0.0000000000000000       6.6081859999999999 
    He       0.0000000000000000       0.0000000000000000      11.0169280000000001 
    He       0.0000000000000000       0.0000000000000000      15.4285560000000004 
    8

    He       0.0000000000000000       0.0000000000000000     -15.7252590000000012 
    He       0.0000000000000000       0.0000000000000000     -11.2287920000000021 
    He       0.0000000000000000       0.0000000000000000      -6.7352665000000007 
    He       0.0000000000000000       0.0000000000000000      -2.2450800000000002 
    He       0.0000000000000000       0.0000000000000000       2.2450800000000002 
    He       0.0000000000000000       0.0000000000000000       6.7352665000000007 
    He       0.0000000000000000       0.0000000000000000      11.2287920000000021 
    He       0.0000000000000000       0.0000000000000000      15.7252590000000012 
    8

    He       0.0000000000000000       0.0000000000000000     -16.0219619999999985 
    He       0.0000000000000000       0.0000000000000000     -11.4406560000000006 
    He       0.0000000000000000       0.0000000000000000      -6.8623470000000006 
    He       0.0000000000000000       0.0000000000000000      -2.2874400000000001 
    He       0.0000000000000000       0.0000000000000000       2.2874400000000001 
    He       0.0000000000000000       0.0000000000000000       6.8623470000000006 
    He       0.0000000000000000       0.0000000000000000      11.4406560000000006 
    He       0.0000000000000000       0.0000000000000000      16.0219619999999985 
    8

    He       0.0000000000000000       0.0000000000000000     -16.3186649999999993 
    He       0.0000000000000000       0.0000000000000000     -11.6525200000000009 
    He       0.0000000000000000       0.0000000000000000      -6.9894274999999997 
    He       0.0000000000000000       0.0000000000000000      -2.3297999999999996 
    He       0.0000000000000000       0.0000000000000000       2.3297999999999996 
    He       0.0000000000000000       0.0000000000000000       6.9894274999999997 
    He       0.0000000000000000       0.0000000000000000      11.6525200000000009 
    He       0.0000000000000000       0.0000000000000000      16.3186649999999993 
    8

    He       0.0000000000000000       0.0000000000000000     -16.6153679999999966 
    He       0.0000000000000000       0.0000000000000000     -11.8643839999999994 
    He       0.0000000000000000       0.0000000000000000      -7.1165079999999996 
    He       0.0000000000000000       0.0000000000000000      -2.3721599999999996 
    He       0.0000000000000000       0.0000000000000000       2.3721599999999996 
    He       0.0000000000000000       0.0000000000000000       7.1165079999999996 
    He       0.0000000000000000       0.0000000000000000      11.8643839999999994 
    He       0.0000000000000000       0.0000000000000000      16.6153679999999966 
    8

    He       0.0000000000000000       0.0000000000000000     -16.9120710000000010 
    He       0.0000000000000000       0.0000000000000000     -12.0762480000000014 
    He       0.0000000000000000       0.0000000000000000      -7.2435885000000004 
    He       0.0000000000000000       0.0000000000000000      -2.4145200000000000 
    He       0.0000000000000000       0.0000000000000000       2.4145200000000000 
    He       0.0000000000000000       0.0000000000000000       7.2435885000000004 
    He       0.0000000000000000       0.0000000000000000      12.0762480000000014 
    He       0.0000000000000000       0.0000000000000000      16.9120710000000010 
    8

    He       0.0000000000000000       0.0000000000000000     -17.2087740000000018 
    He       0.0000000000000000       0.0000000000000000     -12.2881120000000017 
    He       0.0000000000000000       0.0000000000000000      -7.3706690000000004 
    He       0.0000000000000000       0.0000000000000000      -2.4568800000000000 
    He       0.0000000000000000       0.0000000000000000       2.4568800000000000 
    He       0.0000000000000000       0.0000000000000000       7.3706690000000004 
    He       0.0000000000000000       0.0000000000000000      12.2881120000000017 
    He       0.0000000000000000       0.0000000000000000      17.2087740000000018 
    8

    He       0.0000000000000000       0.0000000000000000     -17.5054769999999991 
    He       0.0000000000000000       0.0000000000000000     -12.4999760000000020 
    He       0.0000000000000000       0.0000000000000000      -7.4977495000000003 
    He       0.0000000000000000       0.0000000000000000      -2.4992399999999999 
    He       0.0000000000000000       0.0000000000000000       2.4992399999999999 
    He       0.0000000000000000       0.0000000000000000       7.4977495000000003 
    He       0.0000000000000000       0.0000000000000000      12.4999760000000020 
    He       0.0000000000000000       0.0000000000000000      17.5054769999999991 
    8

    He       0.0000000000000000       0.0000000000000000     -17.8021799999999999 
    He       0.0000000000000000       0.0000000000000000     -12.7118400000000005 
    He       0.0000000000000000       0.0000000000000000      -7.6248299999999993 
    He       0.0000000000000000       0.0000000000000000      -2.5415999999999999 
    He       0.0000000000000000       0.0000000000000000       2.5415999999999999 
    He       0.0000000000000000       0.0000000000000000       7.6248299999999993 
    He       0.0000000000000000       0.0000000000000000      12.7118400000000005 
    He       0.0000000000000000       0.0000000000000000      17.8021799999999999 
