    7

    He      -0.0000000000000000       0.0000000000000000      -0.4086390000000000 
    He      -0.0000000000000000       0.0000000000000000      -2.5718700000000001 
    He       1.3064520000000002       0.9491895000000000       0.5960955000000001 
    He       1.3064520000000002      -0.9491895000000000       0.5960955000000001 
    He      -0.4990230000000000       1.5358245000000001       0.5960955000000001 
    He      -0.4990230000000000      -1.5358245000000001       0.5960955000000001 
    He      -1.6148580000000001       0.0000000000000000       0.5960955000000001 
    7

    He      -0.0000000000000000       0.0000000000000000      -0.4280980000000001 
    He      -0.0000000000000000       0.0000000000000000      -2.6943400000000000 
    He       1.3686640000000001       0.9943890000000001       0.6244810000000001 
    He       1.3686640000000001      -0.9943890000000001       0.6244810000000001 
    He      -0.5227860000000001       1.6089590000000003       0.6244810000000001 
    He      -0.5227860000000001      -1.6089590000000003       0.6244810000000001 
    He      -1.6917560000000000       0.0000000000000000       0.6244810000000001 
    7

    He      -0.0000000000000000       0.0000000000000000      -0.4475570000000000 
    He      -0.0000000000000000       0.0000000000000000      -2.8168099999999994 
    He       1.4308759999999998       1.0395884999999998       0.6528665000000000 
    He       1.4308759999999998      -1.0395884999999998       0.6528665000000000 
    He      -0.5465490000000000       1.6820934999999999       0.6528665000000000 
    He      -0.5465490000000000      -1.6820934999999999       0.6528665000000000 
    He      -1.7686539999999999       0.0000000000000000       0.6528665000000000 
    7

    He      -0.0000000000000000       0.0000000000000000      -0.4670160000000000 
    He      -0.0000000000000000       0.0000000000000000      -2.9392799999999997 
    He       1.4930880000000000       1.0847879999999999       0.6812520000000001 
    He       1.4930880000000000      -1.0847879999999999       0.6812520000000001 
    He      -0.5703120000000000       1.7552280000000000       0.6812520000000001 
    He      -0.5703120000000000      -1.7552280000000000       0.6812520000000001 
    He      -1.8455519999999999       0.0000000000000000       0.6812520000000001 
    7

    He      -0.0000000000000000       0.0000000000000000      -0.4864750000000000 
    He      -0.0000000000000000       0.0000000000000000      -3.0617500000000000 
    He       1.5552999999999999       1.1299874999999999       0.7096375000000000 
    He       1.5552999999999999      -1.1299874999999999       0.7096375000000000 
    He      -0.5940750000000000       1.8283625000000001       0.7096375000000000 
    He      -0.5940750000000000      -1.8283625000000001       0.7096375000000000 
    He      -1.9224500000000000       0.0000000000000000       0.7096375000000000 
    7

    He      -0.0000000000000000       0.0000000000000000      -0.5059340000000001 
    He      -0.0000000000000000       0.0000000000000000      -3.1842199999999998 
    He       1.6175120000000001       1.1751870000000000       0.7380230000000001 
    He       1.6175120000000001      -1.1751870000000000       0.7380230000000001 
    He      -0.6178380000000000       1.9014970000000002       0.7380230000000001 
    He      -0.6178380000000000      -1.9014970000000002       0.7380230000000001 
    He      -1.9993480000000001       0.0000000000000000       0.7380230000000001 
    7

    He      -0.0000000000000000       0.0000000000000000      -0.5253930000000001 
    He      -0.0000000000000000       0.0000000000000000      -3.3066900000000001 
    He       1.6797240000000002       1.2203865000000000       0.7664085000000002 
    He       1.6797240000000002      -1.2203865000000000       0.7664085000000002 
    He      -0.6416010000000001       1.9746315000000001       0.7664085000000002 
    He      -0.6416010000000001      -1.9746315000000001       0.7664085000000002 
    He      -2.0762460000000003       0.0000000000000000       0.7664085000000002 
    7

    He      -0.0000000000000000       0.0000000000000000      -0.5448520000000000 
    He      -0.0000000000000000       0.0000000000000000      -3.4291599999999995 
    He       1.7419359999999999       1.2655859999999999       0.7947940000000000 
    He       1.7419359999999999      -1.2655859999999999       0.7947940000000000 
    He      -0.6653640000000000       2.0477659999999998       0.7947940000000000 
    He      -0.6653640000000000      -2.0477659999999998       0.7947940000000000 
    He      -2.1531439999999997       0.0000000000000000       0.7947940000000000 
    7

    He      -0.0000000000000000       0.0000000000000000      -0.5643110000000000 
    He      -0.0000000000000000       0.0000000000000000      -3.5516299999999994 
    He       1.8041479999999999       1.3107854999999999       0.8231795000000001 
    He       1.8041479999999999      -1.3107854999999999       0.8231795000000001 
    He      -0.6891270000000000       2.1209004999999999       0.8231795000000001 
    He      -0.6891270000000000      -2.1209004999999999       0.8231795000000001 
    He      -2.2300420000000001       0.0000000000000000       0.8231795000000001 
    7

    He      -0.0000000000000000       0.0000000000000000      -0.5837700000000000 
    He      -0.0000000000000000       0.0000000000000000      -3.6740999999999997 
    He       1.8663600000000000       1.3559850000000000       0.8515650000000001 
    He       1.8663600000000000      -1.3559850000000000       0.8515650000000001 
    He      -0.7128900000000000       2.1940350000000000       0.8515650000000001 
    He      -0.7128900000000000      -2.1940350000000000       0.8515650000000001 
    He      -2.3069400000000000       0.0000000000000000       0.8515650000000001 
    7

    He      -0.0000000000000000       0.0000000000000000      -0.6032290000000000 
    He      -0.0000000000000000       0.0000000000000000      -3.7965700000000000 
    He       1.9285720000000002       1.4011845000000001       0.8799505000000001 
    He       1.9285720000000002      -1.4011845000000001       0.8799505000000001 
    He      -0.7366530000000000       2.2671695000000001       0.8799505000000001 
    He      -0.7366530000000000      -2.2671695000000001       0.8799505000000001 
    He      -2.3838379999999999       0.0000000000000000       0.8799505000000001 
    7

    He      -0.0000000000000000       0.0000000000000000      -0.6226880000000001 
    He      -0.0000000000000000       0.0000000000000000      -3.9190399999999999 
    He       1.9907840000000001       1.4463840000000001       0.9083360000000001 
    He       1.9907840000000001      -1.4463840000000001       0.9083360000000001 
    He      -0.7604160000000001       2.3403040000000002       0.9083360000000001 
    He      -0.7604160000000001      -2.3403040000000002       0.9083360000000001 
    He      -2.4607360000000003       0.0000000000000000       0.9083360000000001 
    7

    He      -0.0000000000000000       0.0000000000000000      -0.6421470000000000 
    He      -0.0000000000000000       0.0000000000000000      -4.0415099999999997 
    He       2.0529959999999998       1.4915835000000000       0.9367215000000000 
    He       2.0529959999999998      -1.4915835000000000       0.9367215000000000 
    He      -0.7841790000000000       2.4134384999999998       0.9367215000000000 
    He      -0.7841790000000000      -2.4134384999999998       0.9367215000000000 
    He      -2.5376339999999997       0.0000000000000000       0.9367215000000000 
    7

    He      -0.0000000000000000       0.0000000000000000      -0.6616060000000001 
    He      -0.0000000000000000       0.0000000000000000      -4.1639800000000005 
    He       2.1152080000000004       1.5367830000000000       0.9651070000000002 
    He       2.1152080000000004      -1.5367830000000000       0.9651070000000002 
    He      -0.8079420000000002       2.4865730000000004       0.9651070000000002 
    He      -0.8079420000000002      -2.4865730000000004       0.9651070000000002 
    He      -2.6145320000000001       0.0000000000000000       0.9651070000000002 
    7

    He      -0.0000000000000000       0.0000000000000000      -0.6810650000000000 
    He      -0.0000000000000000       0.0000000000000000      -4.2864499999999994 
    He       2.1774200000000001       1.5819824999999998       0.9934925000000001 
    He       2.1774200000000001      -1.5819824999999998       0.9934925000000001 
    He      -0.8317050000000000       2.5597075000000000       0.9934925000000001 
    He      -0.8317050000000000      -2.5597075000000000       0.9934925000000001 
    He      -2.6914300000000000       0.0000000000000000       0.9934925000000001 
    7

    He      -0.0000000000000000       0.0000000000000000      -0.7005240000000000 
    He      -0.0000000000000000       0.0000000000000000      -4.4089200000000002 
    He       2.2396320000000003       1.6271819999999999       1.0218780000000001 
    He       2.2396320000000003      -1.6271819999999999       1.0218780000000001 
    He      -0.8554680000000000       2.6328420000000001       1.0218780000000001 
    He      -0.8554680000000000      -2.6328420000000001       1.0218780000000001 
    He      -2.7683279999999999       0.0000000000000000       1.0218780000000001 
    7

    He      -0.0000000000000000       0.0000000000000000      -0.7199830000000000 
    He      -0.0000000000000000       0.0000000000000000      -4.5313900000000000 
    He       2.3018440000000000       1.6723815000000000       1.0502635000000002 
    He       2.3018440000000000      -1.6723815000000000       1.0502635000000002 
    He      -0.8792310000000001       2.7059765000000002       1.0502635000000002 
    He      -0.8792310000000001      -2.7059765000000002       1.0502635000000002 
    He      -2.8452260000000003       0.0000000000000000       1.0502635000000002 
    7

    He      -0.0000000000000000       0.0000000000000000      -0.7394420000000000 
    He      -0.0000000000000000       0.0000000000000000      -4.6538599999999990 
    He       2.3640559999999997       1.7175809999999998       1.0786490000000000 
    He       2.3640559999999997      -1.7175809999999998       1.0786490000000000 
    He      -0.9029940000000000       2.7791109999999999       1.0786490000000000 
    He      -0.9029940000000000      -2.7791109999999999       1.0786490000000000 
    He      -2.9221239999999997       0.0000000000000000       1.0786490000000000 
    7

    He      -0.0000000000000000       0.0000000000000000      -0.7589010000000002 
    He      -0.0000000000000000       0.0000000000000000      -4.7763299999999997 
    He       2.4262680000000003       1.7627805000000001       1.1070345000000001 
    He       2.4262680000000003      -1.7627805000000001       1.1070345000000001 
    He      -0.9267570000000002       2.8522455000000004       1.1070345000000001 
    He      -0.9267570000000002      -2.8522455000000004       1.1070345000000001 
    He      -2.9990220000000001       0.0000000000000000       1.1070345000000001 
    7

    He      -0.0000000000000000       0.0000000000000000      -0.7783600000000001 
    He      -0.0000000000000000       0.0000000000000000      -4.8987999999999996 
    He       2.4884800000000000       1.8079799999999999       1.1354200000000001 
    He       2.4884800000000000      -1.8079799999999999       1.1354200000000001 
    He      -0.9505200000000000       2.9253800000000001       1.1354200000000001 
    He      -0.9505200000000000      -2.9253800000000001       1.1354200000000001 
    He      -3.0759200000000000       0.0000000000000000       1.1354200000000001 
    7

    He      -0.0000000000000000       0.0000000000000000      -0.7978189999999999 
    He      -0.0000000000000000       0.0000000000000000      -5.0212699999999995 
    He       2.5506919999999997       1.8531794999999998       1.1638055000000000 
    He       2.5506919999999997      -1.8531794999999998       1.1638055000000000 
    He      -0.9742829999999999       2.9985144999999997       1.1638055000000000 
    He      -0.9742829999999999      -2.9985144999999997       1.1638055000000000 
    He      -3.1528179999999999       0.0000000000000000       1.1638055000000000 
    7

    He      -0.0000000000000000       0.0000000000000000      -0.8172780000000001 
    He      -0.0000000000000000       0.0000000000000000      -5.1437400000000002 
    He       2.6129040000000003       1.8983790000000000       1.1921910000000002 
    He       2.6129040000000003      -1.8983790000000000       1.1921910000000002 
    He      -0.9980460000000001       3.0716490000000003       1.1921910000000002 
    He      -0.9980460000000001      -3.0716490000000003       1.1921910000000002 
    He      -3.2297160000000003       0.0000000000000000       1.1921910000000002 
    7

    He      -0.0000000000000000       0.0000000000000000      -0.8367370000000002 
    He      -0.0000000000000000       0.0000000000000000      -5.2662100000000001 
    He       2.6751160000000005       1.9435785000000003       1.2205765000000004 
    He       2.6751160000000005      -1.9435785000000003       1.2205765000000004 
    He      -1.0218090000000002       3.1447835000000004       1.2205765000000004 
    He      -1.0218090000000002      -3.1447835000000004       1.2205765000000004 
    He      -3.3066140000000006       0.0000000000000000       1.2205765000000004 
    7

    He      -0.0000000000000000       0.0000000000000000      -0.8561960000000002 
    He      -0.0000000000000000       0.0000000000000000      -5.3886799999999999 
    He       2.7373280000000002       1.9887780000000002       1.2489620000000001 
    He       2.7373280000000002      -1.9887780000000002       1.2489620000000001 
    He      -1.0455720000000002       3.2179180000000005       1.2489620000000001 
    He      -1.0455720000000002      -3.2179180000000005       1.2489620000000001 
    He      -3.3835120000000001       0.0000000000000000       1.2489620000000001 
    7

    He      -0.0000000000000000       0.0000000000000000      -0.8756550000000001 
    He      -0.0000000000000000       0.0000000000000000      -5.5111499999999998 
    He       2.7995399999999999       2.0339774999999998       1.2773475000000001 
    He       2.7995399999999999      -2.0339774999999998       1.2773475000000001 
    He      -1.0693350000000001       3.2910525000000002       1.2773475000000001 
    He      -1.0693350000000001      -3.2910525000000002       1.2773475000000001 
    He      -3.4604100000000000       0.0000000000000000       1.2773475000000001 
    7

    He      -0.0000000000000000       0.0000000000000000      -0.8951140000000000 
    He      -0.0000000000000000       0.0000000000000000      -5.6336199999999987 
    He       2.8617519999999996       2.0791769999999996       1.3057330000000000 
    He       2.8617519999999996      -2.0791769999999996       1.3057330000000000 
    He      -1.0930979999999999       3.3641869999999998       1.3057330000000000 
    He      -1.0930979999999999      -3.3641869999999998       1.3057330000000000 
    He      -3.5373079999999999       0.0000000000000000       1.3057330000000000 
    7

    He      -0.0000000000000000       0.0000000000000000      -0.9145730000000001 
    He      -0.0000000000000000       0.0000000000000000      -5.7560899999999995 
    He       2.9239640000000002       2.1243764999999999       1.3341185000000002 
    He       2.9239640000000002      -2.1243764999999999       1.3341185000000002 
    He      -1.1168610000000001       3.4373215000000004       1.3341185000000002 
    He      -1.1168610000000001      -3.4373215000000004       1.3341185000000002 
    He      -3.6142060000000003       0.0000000000000000       1.3341185000000002 
    7

    He      -0.0000000000000000       0.0000000000000000      -0.9340320000000002 
    He      -0.0000000000000000       0.0000000000000000      -5.8785600000000002 
    He       2.9861760000000004       2.1695760000000002       1.3625040000000004 
    He       2.9861760000000004      -2.1695760000000002       1.3625040000000004 
    He      -1.1406240000000003       3.5104560000000005       1.3625040000000004 
    He      -1.1406240000000003      -3.5104560000000005       1.3625040000000004 
    He      -3.6911040000000006       0.0000000000000000       1.3625040000000004 
    7

    He      -0.0000000000000000       0.0000000000000000      -0.9534910000000001 
    He      -0.0000000000000000       0.0000000000000000      -6.0010300000000001 
    He       3.0483880000000001       2.2147755000000000       1.3908895000000001 
    He       3.0483880000000001      -2.2147755000000000       1.3908895000000001 
    He      -1.1643870000000001       3.5835905000000006       1.3908895000000001 
    He      -1.1643870000000001      -3.5835905000000006       1.3908895000000001 
    He      -3.7680020000000001       0.0000000000000000       1.3908895000000001 
    7

    He      -0.0000000000000000       0.0000000000000000      -0.9729500000000001 
    He      -0.0000000000000000       0.0000000000000000      -6.1234999999999999 
    He       3.1105999999999998       2.2599749999999998       1.4192750000000001 
    He       3.1105999999999998      -2.2599749999999998       1.4192750000000001 
    He      -1.1881500000000000       3.6567250000000002       1.4192750000000001 
    He      -1.1881500000000000      -3.6567250000000002       1.4192750000000001 
    He      -3.8449000000000000       0.0000000000000000       1.4192750000000001 
    7

    He      -0.0000000000000000       0.0000000000000000      -0.9924090000000000 
    He      -0.0000000000000000       0.0000000000000000      -6.2459699999999989 
    He       3.1728120000000000       2.3051744999999997       1.4476605000000000 
    He       3.1728120000000000      -2.3051744999999997       1.4476605000000000 
    He      -1.2119130000000000       3.7298594999999999       1.4476605000000000 
    He      -1.2119130000000000      -3.7298594999999999       1.4476605000000000 
    He      -3.9217979999999999       0.0000000000000000       1.4476605000000000 
    7

    He      -0.0000000000000000       0.0000000000000000      -1.0118680000000002 
    He      -0.0000000000000000       0.0000000000000000      -6.3684399999999997 
    He       3.2350240000000001       2.3503740000000000       1.4760460000000002 
    He       3.2350240000000001      -2.3503740000000000       1.4760460000000002 
    He      -1.2356760000000000       3.8029940000000004       1.4760460000000002 
    He      -1.2356760000000000      -3.8029940000000004       1.4760460000000002 
    He      -3.9986960000000003       0.0000000000000000       1.4760460000000002 
    7

    He      -0.0000000000000000       0.0000000000000000      -1.0313270000000001 
    He      -0.0000000000000000       0.0000000000000000      -6.4909100000000004 
    He       3.2972360000000003       2.3955735000000002       1.5044315000000004 
    He       3.2972360000000003      -2.3955735000000002       1.5044315000000004 
    He      -1.2594390000000002       3.8761285000000005       1.5044315000000004 
    He      -1.2594390000000002      -3.8761285000000005       1.5044315000000004 
    He      -4.0755940000000006       0.0000000000000000       1.5044315000000004 
    7

    He      -0.0000000000000000       0.0000000000000000      -1.0507860000000002 
    He      -0.0000000000000000       0.0000000000000000      -6.6133800000000003 
    He       3.3594480000000004       2.4407730000000001       1.5328170000000003 
    He       3.3594480000000004      -2.4407730000000001       1.5328170000000003 
    He      -1.2832020000000002       3.9492630000000002       1.5328170000000003 
    He      -1.2832020000000002      -3.9492630000000002       1.5328170000000003 
    He      -4.1524920000000005       0.0000000000000000       1.5328170000000003 
    7

    He      -0.0000000000000000       0.0000000000000000      -1.0702450000000001 
    He      -0.0000000000000000       0.0000000000000000      -6.7358499999999992 
    He       3.4216600000000001       2.4859724999999999       1.5612025000000000 
    He       3.4216600000000001      -2.4859724999999999       1.5612025000000000 
    He      -1.3069649999999999       4.0223975000000003       1.5612025000000000 
    He      -1.3069649999999999      -4.0223975000000003       1.5612025000000000 
    He      -4.2293900000000004       0.0000000000000000       1.5612025000000000 
    7

    He      -0.0000000000000000       0.0000000000000000      -1.0897040000000000 
    He      -0.0000000000000000       0.0000000000000000      -6.8583199999999991 
    He       3.4838719999999999       2.5311719999999998       1.5895880000000000 
    He       3.4838719999999999      -2.5311719999999998       1.5895880000000000 
    He      -1.3307279999999999       4.0955319999999995       1.5895880000000000 
    He      -1.3307279999999999      -4.0955319999999995       1.5895880000000000 
    He      -4.3062879999999994       0.0000000000000000       1.5895880000000000 
    7

    He      -0.0000000000000000       0.0000000000000000      -1.1091630000000001 
    He      -0.0000000000000000       0.0000000000000000      -6.9807899999999998 
    He       3.5460840000000000       2.5763715000000000       1.6179735000000002 
    He       3.5460840000000000      -2.5763715000000000       1.6179735000000002 
    He      -1.3544910000000001       4.1686665000000005       1.6179735000000002 
    He      -1.3544910000000001      -4.1686665000000005       1.6179735000000002 
    He      -4.3831860000000002       0.0000000000000000       1.6179735000000002 
    7

    He      -0.0000000000000000       0.0000000000000000      -1.1286220000000002 
    He      -0.0000000000000000       0.0000000000000000      -7.1032600000000006 
    He       3.6082960000000006       2.6215710000000003       1.6463590000000003 
    He       3.6082960000000006      -2.6215710000000003       1.6463590000000003 
    He      -1.3782540000000003       4.2418010000000006       1.6463590000000003 
    He      -1.3782540000000003      -4.2418010000000006       1.6463590000000003 
    He      -4.4600840000000002       0.0000000000000000       1.6463590000000003 
    7

    He      -0.0000000000000000       0.0000000000000000      -1.1480810000000001 
    He      -0.0000000000000000       0.0000000000000000      -7.2257299999999995 
    He       3.6705080000000003       2.6667705000000002       1.6747445000000003 
    He       3.6705080000000003      -2.6667705000000002       1.6747445000000003 
    He      -1.4020170000000001       4.3149355000000007       1.6747445000000003 
    He      -1.4020170000000001      -4.3149355000000007       1.6747445000000003 
    He      -4.5369820000000001       0.0000000000000000       1.6747445000000003 
    7

    He      -0.0000000000000000       0.0000000000000000      -1.1675400000000000 
    He      -0.0000000000000000       0.0000000000000000      -7.3481999999999994 
    He       3.7327200000000000       2.7119700000000000       1.7031300000000003 
    He       3.7327200000000000      -2.7119700000000000       1.7031300000000003 
    He      -1.4257800000000000       4.3880699999999999       1.7031300000000003 
    He      -1.4257800000000000      -4.3880699999999999       1.7031300000000003 
    He      -4.6138800000000000       0.0000000000000000       1.7031300000000003 
