    8

    He      -0.0000000000000000      -0.8895390000000001      -2.6565210000000001 
    He       0.0000000000000000       0.8895390000000001      -2.6565210000000001 
    He       0.0000000000000000       0.8896020000000000      -0.8830395000000001 
    He      -0.0000000000000000      -0.8896020000000000      -0.8830395000000001 
    He      -0.0000000000000000      -0.8896020000000000       0.8830395000000001 
    He       0.0000000000000000       0.8896020000000000       0.8830395000000001 
    He       0.0000000000000000       0.8895390000000001       2.6565210000000001 
    He      -0.0000000000000000      -0.8895390000000001       2.6565210000000001 
    8

    He      -0.0000000000000000      -0.9318980000000001      -2.7830220000000003 
    He       0.0000000000000000       0.9318980000000001      -2.7830220000000003 
    He       0.0000000000000000       0.9319640000000000      -0.9250890000000001 
    He      -0.0000000000000000      -0.9319640000000000      -0.9250890000000001 
    He      -0.0000000000000000      -0.9319640000000000       0.9250890000000001 
    He       0.0000000000000000       0.9319640000000000       0.9250890000000001 
    He       0.0000000000000000       0.9318980000000001       2.7830220000000003 
    He      -0.0000000000000000      -0.9318980000000001       2.7830220000000003 
    8

    He      -0.0000000000000000      -0.9742569999999999      -2.9095229999999996 
    He       0.0000000000000000       0.9742569999999999      -2.9095229999999996 
    He       0.0000000000000000       0.9743259999999999      -0.9671384999999999 
    He      -0.0000000000000000      -0.9743259999999999      -0.9671384999999999 
    He      -0.0000000000000000      -0.9743259999999999       0.9671384999999999 
    He       0.0000000000000000       0.9743259999999999       0.9671384999999999 
    He       0.0000000000000000       0.9742569999999999       2.9095229999999996 
    He      -0.0000000000000000      -0.9742569999999999       2.9095229999999996 
    8

    He      -0.0000000000000000      -1.0166160000000000      -3.0360239999999998 
    He       0.0000000000000000       1.0166160000000000      -3.0360239999999998 
    He       0.0000000000000000       1.0166880000000000      -1.0091880000000000 
    He      -0.0000000000000000      -1.0166880000000000      -1.0091880000000000 
    He      -0.0000000000000000      -1.0166880000000000       1.0091880000000000 
    He       0.0000000000000000       1.0166880000000000       1.0091880000000000 
    He       0.0000000000000000       1.0166160000000000       3.0360239999999998 
    He      -0.0000000000000000      -1.0166160000000000       3.0360239999999998 
    8

    He      -0.0000000000000000      -1.0589750000000000      -3.1625250000000000 
    He       0.0000000000000000       1.0589750000000000      -3.1625250000000000 
    He       0.0000000000000000       1.0590500000000000      -1.0512375000000000 
    He      -0.0000000000000000      -1.0590500000000000      -1.0512375000000000 
    He      -0.0000000000000000      -1.0590500000000000       1.0512375000000000 
    He       0.0000000000000000       1.0590500000000000       1.0512375000000000 
    He       0.0000000000000000       1.0589750000000000       3.1625250000000000 
    He      -0.0000000000000000      -1.0589750000000000       3.1625250000000000 
    8

    He      -0.0000000000000000      -1.1013340000000000      -3.2890260000000002 
    He       0.0000000000000000       1.1013340000000000      -3.2890260000000002 
    He       0.0000000000000000       1.1014120000000001      -1.0932870000000001 
    He      -0.0000000000000000      -1.1014120000000001      -1.0932870000000001 
    He      -0.0000000000000000      -1.1014120000000001       1.0932870000000001 
    He       0.0000000000000000       1.1014120000000001       1.0932870000000001 
    He       0.0000000000000000       1.1013340000000000       3.2890260000000002 
    He      -0.0000000000000000      -1.1013340000000000       3.2890260000000002 
    8

    He      -0.0000000000000000      -1.1436930000000001      -3.4155270000000000 
    He       0.0000000000000000       1.1436930000000001      -3.4155270000000000 
    He       0.0000000000000000       1.1437740000000001      -1.1353365000000002 
    He      -0.0000000000000000      -1.1437740000000001      -1.1353365000000002 
    He      -0.0000000000000000      -1.1437740000000001       1.1353365000000002 
    He       0.0000000000000000       1.1437740000000001       1.1353365000000002 
    He       0.0000000000000000       1.1436930000000001       3.4155270000000000 
    He      -0.0000000000000000      -1.1436930000000001       3.4155270000000000 
    8

    He      -0.0000000000000000      -1.1860519999999999      -3.5420279999999997 
    He       0.0000000000000000       1.1860519999999999      -3.5420279999999997 
    He       0.0000000000000000       1.1861359999999999      -1.1773860000000000 
    He      -0.0000000000000000      -1.1861359999999999      -1.1773860000000000 
    He      -0.0000000000000000      -1.1861359999999999       1.1773860000000000 
    He       0.0000000000000000       1.1861359999999999       1.1773860000000000 
    He       0.0000000000000000       1.1860519999999999       3.5420279999999997 
    He      -0.0000000000000000      -1.1860519999999999       3.5420279999999997 
    8

    He      -0.0000000000000000      -1.2284109999999999      -3.6685289999999999 
    He       0.0000000000000000       1.2284109999999999      -3.6685289999999999 
    He       0.0000000000000000       1.2284979999999999      -1.2194354999999999 
    He      -0.0000000000000000      -1.2284979999999999      -1.2194354999999999 
    He      -0.0000000000000000      -1.2284979999999999       1.2194354999999999 
    He       0.0000000000000000       1.2284979999999999       1.2194354999999999 
    He       0.0000000000000000       1.2284109999999999       3.6685289999999999 
    He      -0.0000000000000000      -1.2284109999999999       3.6685289999999999 
    8

    He      -0.0000000000000000      -1.2707700000000002      -3.7950299999999997 
    He       0.0000000000000000       1.2707700000000002      -3.7950299999999997 
    He       0.0000000000000000       1.2708599999999999      -1.2614850000000000 
    He      -0.0000000000000000      -1.2708599999999999      -1.2614850000000000 
    He      -0.0000000000000000      -1.2708599999999999       1.2614850000000000 
    He       0.0000000000000000       1.2708599999999999       1.2614850000000000 
    He       0.0000000000000000       1.2707700000000002       3.7950299999999997 
    He      -0.0000000000000000      -1.2707700000000002       3.7950299999999997 
    8

    He      -0.0000000000000000      -1.3131290000000002      -3.9215309999999999 
    He       0.0000000000000000       1.3131290000000002      -3.9215309999999999 
    He       0.0000000000000000       1.3132220000000001      -1.3035345000000000 
    He      -0.0000000000000000      -1.3132220000000001      -1.3035345000000000 
    He      -0.0000000000000000      -1.3132220000000001       1.3035345000000000 
    He       0.0000000000000000       1.3132220000000001       1.3035345000000000 
    He       0.0000000000000000       1.3131290000000002       3.9215309999999999 
    He      -0.0000000000000000      -1.3131290000000002       3.9215309999999999 
    8

    He      -0.0000000000000000      -1.3554880000000002      -4.0480320000000001 
    He       0.0000000000000000       1.3554880000000002      -4.0480320000000001 
    He       0.0000000000000000       1.3555840000000001      -1.3455840000000001 
    He      -0.0000000000000000      -1.3555840000000001      -1.3455840000000001 
    He      -0.0000000000000000      -1.3555840000000001       1.3455840000000001 
    He       0.0000000000000000       1.3555840000000001       1.3455840000000001 
    He       0.0000000000000000       1.3554880000000002       4.0480320000000001 
    He      -0.0000000000000000      -1.3554880000000002       4.0480320000000001 
    8

    He      -0.0000000000000000      -1.3978470000000001      -4.1745329999999994 
    He       0.0000000000000000       1.3978470000000001      -4.1745329999999994 
    He       0.0000000000000000       1.3979459999999999      -1.3876335000000000 
    He      -0.0000000000000000      -1.3979459999999999      -1.3876335000000000 
    He      -0.0000000000000000      -1.3979459999999999       1.3876335000000000 
    He       0.0000000000000000       1.3979459999999999       1.3876335000000000 
    He       0.0000000000000000       1.3978470000000001       4.1745329999999994 
    He      -0.0000000000000000      -1.3978470000000001       4.1745329999999994 
    8

    He      -0.0000000000000000      -1.4402060000000003      -4.3010340000000005 
    He       0.0000000000000000       1.4402060000000003      -4.3010340000000005 
    He       0.0000000000000000       1.4403080000000001      -1.4296830000000003 
    He      -0.0000000000000000      -1.4403080000000001      -1.4296830000000003 
    He      -0.0000000000000000      -1.4403080000000001       1.4296830000000003 
    He       0.0000000000000000       1.4403080000000001       1.4296830000000003 
    He       0.0000000000000000       1.4402060000000003       4.3010340000000005 
    He      -0.0000000000000000      -1.4402060000000003       4.3010340000000005 
    8

    He      -0.0000000000000000      -1.4825650000000001      -4.4275349999999998 
    He       0.0000000000000000       1.4825650000000001      -4.4275349999999998 
    He       0.0000000000000000       1.4826699999999999      -1.4717325000000001 
    He      -0.0000000000000000      -1.4826699999999999      -1.4717325000000001 
    He      -0.0000000000000000      -1.4826699999999999       1.4717325000000001 
    He       0.0000000000000000       1.4826699999999999       1.4717325000000001 
    He       0.0000000000000000       1.4825650000000001       4.4275349999999998 
    He      -0.0000000000000000      -1.4825650000000001       4.4275349999999998 
    8

    He      -0.0000000000000000      -1.5249240000000002      -4.5540360000000000 
    He       0.0000000000000000       1.5249240000000002      -4.5540360000000000 
    He       0.0000000000000000       1.5250319999999999      -1.5137820000000000 
    He      -0.0000000000000000      -1.5250319999999999      -1.5137820000000000 
    He      -0.0000000000000000      -1.5250319999999999       1.5137820000000000 
    He       0.0000000000000000       1.5250319999999999       1.5137820000000000 
    He       0.0000000000000000       1.5249240000000002       4.5540360000000000 
    He      -0.0000000000000000      -1.5249240000000002       4.5540360000000000 
    8

    He      -0.0000000000000000      -1.5672830000000002      -4.6805370000000002 
    He       0.0000000000000000       1.5672830000000002      -4.6805370000000002 
    He       0.0000000000000000       1.5673940000000000      -1.5558315000000000 
    He      -0.0000000000000000      -1.5673940000000000      -1.5558315000000000 
    He      -0.0000000000000000      -1.5673940000000000       1.5558315000000000 
    He       0.0000000000000000       1.5673940000000000       1.5558315000000000 
    He       0.0000000000000000       1.5672830000000002       4.6805370000000002 
    He      -0.0000000000000000      -1.5672830000000002       4.6805370000000002 
    8

    He      -0.0000000000000000      -1.6096420000000000      -4.8070379999999995 
    He       0.0000000000000000       1.6096420000000000      -4.8070379999999995 
    He       0.0000000000000000       1.6097560000000000      -1.5978809999999999 
    He      -0.0000000000000000      -1.6097560000000000      -1.5978809999999999 
    He      -0.0000000000000000      -1.6097560000000000       1.5978809999999999 
    He       0.0000000000000000       1.6097560000000000       1.5978809999999999 
    He       0.0000000000000000       1.6096420000000000       4.8070379999999995 
    He      -0.0000000000000000      -1.6096420000000000       4.8070379999999995 
    8

    He      -0.0000000000000000      -1.6520010000000003      -4.9335390000000006 
    He       0.0000000000000000       1.6520010000000003      -4.9335390000000006 
    He       0.0000000000000000       1.6521180000000002      -1.6399305000000002 
    He      -0.0000000000000000      -1.6521180000000002      -1.6399305000000002 
    He      -0.0000000000000000      -1.6521180000000002       1.6399305000000002 
    He       0.0000000000000000       1.6521180000000002       1.6399305000000002 
    He       0.0000000000000000       1.6520010000000003       4.9335390000000006 
    He      -0.0000000000000000      -1.6520010000000003       4.9335390000000006 
    8

    He      -0.0000000000000000      -1.6943600000000001      -5.0600399999999999 
    He       0.0000000000000000       1.6943600000000001      -5.0600399999999999 
    He       0.0000000000000000       1.6944800000000000      -1.6819800000000000 
    He      -0.0000000000000000      -1.6944800000000000      -1.6819800000000000 
    He      -0.0000000000000000      -1.6944800000000000       1.6819800000000000 
    He       0.0000000000000000       1.6944800000000000       1.6819800000000000 
    He       0.0000000000000000       1.6943600000000001       5.0600399999999999 
    He      -0.0000000000000000      -1.6943600000000001       5.0600399999999999 
    8

    He      -0.0000000000000000      -1.7367189999999999      -5.1865409999999992 
    He       0.0000000000000000       1.7367189999999999      -5.1865409999999992 
    He       0.0000000000000000       1.7368419999999998      -1.7240294999999999 
    He      -0.0000000000000000      -1.7368419999999998      -1.7240294999999999 
    He      -0.0000000000000000      -1.7368419999999998       1.7240294999999999 
    He       0.0000000000000000       1.7368419999999998       1.7240294999999999 
    He       0.0000000000000000       1.7367189999999999       5.1865409999999992 
    He      -0.0000000000000000      -1.7367189999999999       5.1865409999999992 
    8

    He      -0.0000000000000000      -1.7790780000000002      -5.3130420000000003 
    He       0.0000000000000000       1.7790780000000002      -5.3130420000000003 
    He       0.0000000000000000       1.7792040000000000      -1.7660790000000002 
    He      -0.0000000000000000      -1.7792040000000000      -1.7660790000000002 
    He      -0.0000000000000000      -1.7792040000000000       1.7660790000000002 
    He       0.0000000000000000       1.7792040000000000       1.7660790000000002 
    He       0.0000000000000000       1.7790780000000002       5.3130420000000003 
    He      -0.0000000000000000      -1.7790780000000002       5.3130420000000003 
    8

    He      -0.0000000000000000      -1.8214370000000004      -5.4395430000000005 
    He       0.0000000000000000       1.8214370000000004      -5.4395430000000005 
    He       0.0000000000000000       1.8215660000000002      -1.8081285000000002 
    He      -0.0000000000000000      -1.8215660000000002      -1.8081285000000002 
    He      -0.0000000000000000      -1.8215660000000002       1.8081285000000002 
    He       0.0000000000000000       1.8215660000000002       1.8081285000000002 
    He       0.0000000000000000       1.8214370000000004       5.4395430000000005 
    He      -0.0000000000000000      -1.8214370000000004       5.4395430000000005 
    8

    He      -0.0000000000000000      -1.8637960000000002      -5.5660440000000007 
    He       0.0000000000000000       1.8637960000000002      -5.5660440000000007 
    He       0.0000000000000000       1.8639280000000000      -1.8501780000000001 
    He      -0.0000000000000000      -1.8639280000000000      -1.8501780000000001 
    He      -0.0000000000000000      -1.8639280000000000       1.8501780000000001 
    He       0.0000000000000000       1.8639280000000000       1.8501780000000001 
    He       0.0000000000000000       1.8637960000000002       5.5660440000000007 
    He      -0.0000000000000000      -1.8637960000000002       5.5660440000000007 
    8

    He      -0.0000000000000000      -1.9061550000000000      -5.6925450000000000 
    He       0.0000000000000000       1.9061550000000000      -5.6925450000000000 
    He       0.0000000000000000       1.9062900000000000      -1.8922275000000000 
    He      -0.0000000000000000      -1.9062900000000000      -1.8922275000000000 
    He      -0.0000000000000000      -1.9062900000000000       1.8922275000000000 
    He       0.0000000000000000       1.9062900000000000       1.8922275000000000 
    He       0.0000000000000000       1.9061550000000000       5.6925450000000000 
    He      -0.0000000000000000      -1.9061550000000000       5.6925450000000000 
    8

    He      -0.0000000000000000      -1.9485139999999999      -5.8190459999999993 
    He       0.0000000000000000       1.9485139999999999      -5.8190459999999993 
    He       0.0000000000000000       1.9486519999999998      -1.9342769999999998 
    He      -0.0000000000000000      -1.9486519999999998      -1.9342769999999998 
    He      -0.0000000000000000      -1.9486519999999998       1.9342769999999998 
    He       0.0000000000000000       1.9486519999999998       1.9342769999999998 
    He       0.0000000000000000       1.9485139999999999       5.8190459999999993 
    He      -0.0000000000000000      -1.9485139999999999       5.8190459999999993 
    8

    He      -0.0000000000000000      -1.9908730000000001      -5.9455470000000004 
    He       0.0000000000000000       1.9908730000000001      -5.9455470000000004 
    He       0.0000000000000000       1.9910140000000001      -1.9763265000000001 
    He      -0.0000000000000000      -1.9910140000000001      -1.9763265000000001 
    He      -0.0000000000000000      -1.9910140000000001       1.9763265000000001 
    He       0.0000000000000000       1.9910140000000001       1.9763265000000001 
    He       0.0000000000000000       1.9908730000000001       5.9455470000000004 
    He      -0.0000000000000000      -1.9908730000000001       5.9455470000000004 
    8

    He      -0.0000000000000000      -2.0332320000000004      -6.0720480000000006 
    He       0.0000000000000000       2.0332320000000004      -6.0720480000000006 
    He       0.0000000000000000       2.0333760000000001      -2.0183760000000004 
    He      -0.0000000000000000      -2.0333760000000001      -2.0183760000000004 
    He      -0.0000000000000000      -2.0333760000000001       2.0183760000000004 
    He       0.0000000000000000       2.0333760000000001       2.0183760000000004 
    He       0.0000000000000000       2.0332320000000004       6.0720480000000006 
    He      -0.0000000000000000      -2.0332320000000004       6.0720480000000006 
    8

    He      -0.0000000000000000      -2.0755910000000002      -6.1985489999999999 
    He       0.0000000000000000       2.0755910000000002      -6.1985489999999999 
    He       0.0000000000000000       2.0757380000000003      -2.0604255000000000 
    He      -0.0000000000000000      -2.0757380000000003      -2.0604255000000000 
    He      -0.0000000000000000      -2.0757380000000003       2.0604255000000000 
    He       0.0000000000000000       2.0757380000000003       2.0604255000000000 
    He       0.0000000000000000       2.0755910000000002       6.1985489999999999 
    He      -0.0000000000000000      -2.0755910000000002       6.1985489999999999 
    8

    He      -0.0000000000000000      -2.1179500000000000      -6.3250500000000001 
    He       0.0000000000000000       2.1179500000000000      -6.3250500000000001 
    He       0.0000000000000000       2.1181000000000001      -2.1024750000000001 
    He      -0.0000000000000000      -2.1181000000000001      -2.1024750000000001 
    He      -0.0000000000000000      -2.1181000000000001       2.1024750000000001 
    He       0.0000000000000000       2.1181000000000001       2.1024750000000001 
    He       0.0000000000000000       2.1179500000000000       6.3250500000000001 
    He      -0.0000000000000000      -2.1179500000000000       6.3250500000000001 
    8

    He      -0.0000000000000000      -2.1603089999999998      -6.4515509999999994 
    He       0.0000000000000000       2.1603089999999998      -6.4515509999999994 
    He       0.0000000000000000       2.1604619999999999      -2.1445244999999997 
    He      -0.0000000000000000      -2.1604619999999999      -2.1445244999999997 
    He      -0.0000000000000000      -2.1604619999999999       2.1445244999999997 
    He       0.0000000000000000       2.1604619999999999       2.1445244999999997 
    He       0.0000000000000000       2.1603089999999998       6.4515509999999994 
    He      -0.0000000000000000      -2.1603089999999998       6.4515509999999994 
    8

    He      -0.0000000000000000      -2.2026680000000001      -6.5780520000000005 
    He       0.0000000000000000       2.2026680000000001      -6.5780520000000005 
    He       0.0000000000000000       2.2028240000000001      -2.1865740000000002 
    He      -0.0000000000000000      -2.2028240000000001      -2.1865740000000002 
    He      -0.0000000000000000      -2.2028240000000001       2.1865740000000002 
    He       0.0000000000000000       2.2028240000000001       2.1865740000000002 
    He       0.0000000000000000       2.2026680000000001       6.5780520000000005 
    He      -0.0000000000000000      -2.2026680000000001       6.5780520000000005 
    8

    He      -0.0000000000000000      -2.2450270000000003      -6.7045530000000007 
    He       0.0000000000000000       2.2450270000000003      -6.7045530000000007 
    He       0.0000000000000000       2.2451860000000003      -2.2286235000000003 
    He      -0.0000000000000000      -2.2451860000000003      -2.2286235000000003 
    He      -0.0000000000000000      -2.2451860000000003       2.2286235000000003 
    He       0.0000000000000000       2.2451860000000003       2.2286235000000003 
    He       0.0000000000000000       2.2450270000000003       6.7045530000000007 
    He      -0.0000000000000000      -2.2450270000000003       6.7045530000000007 
    8

    He      -0.0000000000000000      -2.2873860000000001      -6.8310540000000000 
    He       0.0000000000000000       2.2873860000000001      -6.8310540000000000 
    He       0.0000000000000000       2.2875480000000001      -2.2706730000000004 
    He      -0.0000000000000000      -2.2875480000000001      -2.2706730000000004 
    He      -0.0000000000000000      -2.2875480000000001       2.2706730000000004 
    He       0.0000000000000000       2.2875480000000001       2.2706730000000004 
    He       0.0000000000000000       2.2873860000000001       6.8310540000000000 
    He      -0.0000000000000000      -2.2873860000000001       6.8310540000000000 
    8

    He      -0.0000000000000000      -2.3297450000000000      -6.9575550000000002 
    He       0.0000000000000000       2.3297450000000000      -6.9575550000000002 
    He       0.0000000000000000       2.3299099999999999      -2.3127225000000000 
    He      -0.0000000000000000      -2.3299099999999999      -2.3127225000000000 
    He      -0.0000000000000000      -2.3299099999999999       2.3127225000000000 
    He       0.0000000000000000       2.3299099999999999       2.3127225000000000 
    He       0.0000000000000000       2.3297450000000000       6.9575550000000002 
    He      -0.0000000000000000      -2.3297450000000000       6.9575550000000002 
    8

    He      -0.0000000000000000      -2.3721039999999998      -7.0840559999999995 
    He       0.0000000000000000       2.3721039999999998      -7.0840559999999995 
    He       0.0000000000000000       2.3722719999999997      -2.3547720000000001 
    He      -0.0000000000000000      -2.3722719999999997      -2.3547720000000001 
    He      -0.0000000000000000      -2.3722719999999997       2.3547720000000001 
    He       0.0000000000000000       2.3722719999999997       2.3547720000000001 
    He       0.0000000000000000       2.3721039999999998       7.0840559999999995 
    He      -0.0000000000000000      -2.3721039999999998       7.0840559999999995 
    8

    He      -0.0000000000000000      -2.4144630000000000      -7.2105569999999997 
    He       0.0000000000000000       2.4144630000000000      -7.2105569999999997 
    He       0.0000000000000000       2.4146339999999999      -2.3968215000000002 
    He      -0.0000000000000000      -2.4146339999999999      -2.3968215000000002 
    He      -0.0000000000000000      -2.4146339999999999       2.3968215000000002 
    He       0.0000000000000000       2.4146339999999999       2.3968215000000002 
    He       0.0000000000000000       2.4144630000000000       7.2105569999999997 
    He      -0.0000000000000000      -2.4144630000000000       7.2105569999999997 
    8

    He      -0.0000000000000000      -2.4568220000000003      -7.3370580000000007 
    He       0.0000000000000000       2.4568220000000003      -7.3370580000000007 
    He       0.0000000000000000       2.4569960000000002      -2.4388710000000002 
    He      -0.0000000000000000      -2.4569960000000002      -2.4388710000000002 
    He      -0.0000000000000000      -2.4569960000000002       2.4388710000000002 
    He       0.0000000000000000       2.4569960000000002       2.4388710000000002 
    He       0.0000000000000000       2.4568220000000003       7.3370580000000007 
    He      -0.0000000000000000      -2.4568220000000003       7.3370580000000007 
    8

    He      -0.0000000000000000      -2.4991810000000001      -7.4635590000000001 
    He       0.0000000000000000       2.4991810000000001      -7.4635590000000001 
    He       0.0000000000000000       2.4993580000000000      -2.4809205000000003 
    He      -0.0000000000000000      -2.4993580000000000      -2.4809205000000003 
    He      -0.0000000000000000      -2.4993580000000000       2.4809205000000003 
    He       0.0000000000000000       2.4993580000000000       2.4809205000000003 
    He       0.0000000000000000       2.4991810000000001       7.4635590000000001 
    He      -0.0000000000000000      -2.4991810000000001       7.4635590000000001 
    8

    He      -0.0000000000000000      -2.5415400000000004      -7.5900599999999994 
    He       0.0000000000000000       2.5415400000000004      -7.5900599999999994 
    He       0.0000000000000000       2.5417199999999998      -2.5229699999999999 
    He      -0.0000000000000000      -2.5417199999999998      -2.5229699999999999 
    He      -0.0000000000000000      -2.5417199999999998       2.5229699999999999 
    He       0.0000000000000000       2.5417199999999998       2.5229699999999999 
    He       0.0000000000000000       2.5415400000000004       7.5900599999999994 
    He      -0.0000000000000000      -2.5415400000000004       7.5900599999999994 
